*SPEF "ieee 1481-1999"
*DESIGN "user_adder"
*DATE "11:11:11 Fri 11 11, 1111"
*VENDOR "OpenRCX"
*PROGRAM "Parallel Extraction"
*VERSION "1.0"
*DESIGN_FLOW "NAME_SCOPE LOCAL" "PIN_CAP NONE"
*DIVIDER /
*DELIMITER :
*BUS_DELIMITER []
*T_UNIT 1 NS
*C_UNIT 1 PF
*R_UNIT 1 OHM
*L_UNIT 1 HENRY

*NAME_MAP
*1 io_in[0]
*2 io_in[10]
*3 io_in[11]
*4 io_in[12]
*5 io_in[13]
*6 io_in[14]
*7 io_in[15]
*8 io_in[16]
*9 io_in[17]
*10 io_in[18]
*11 io_in[19]
*12 io_in[1]
*13 io_in[20]
*14 io_in[21]
*15 io_in[22]
*16 io_in[23]
*17 io_in[24]
*18 io_in[25]
*19 io_in[26]
*20 io_in[27]
*21 io_in[28]
*22 io_in[29]
*23 io_in[2]
*24 io_in[30]
*25 io_in[31]
*26 io_in[32]
*27 io_in[33]
*28 io_in[34]
*29 io_in[35]
*30 io_in[36]
*31 io_in[37]
*32 io_in[3]
*33 io_in[4]
*34 io_in[5]
*35 io_in[6]
*36 io_in[7]
*37 io_in[8]
*38 io_in[9]
*39 io_oeb[0]
*40 io_oeb[10]
*41 io_oeb[11]
*42 io_oeb[12]
*43 io_oeb[13]
*44 io_oeb[14]
*45 io_oeb[15]
*46 io_oeb[16]
*47 io_oeb[17]
*48 io_oeb[18]
*49 io_oeb[19]
*50 io_oeb[1]
*51 io_oeb[20]
*52 io_oeb[21]
*53 io_oeb[22]
*54 io_oeb[23]
*55 io_oeb[24]
*56 io_oeb[25]
*57 io_oeb[26]
*58 io_oeb[27]
*59 io_oeb[28]
*60 io_oeb[29]
*61 io_oeb[2]
*62 io_oeb[30]
*63 io_oeb[31]
*64 io_oeb[32]
*65 io_oeb[33]
*66 io_oeb[34]
*67 io_oeb[35]
*68 io_oeb[36]
*69 net272
*70 io_oeb[3]
*71 io_oeb[4]
*72 io_oeb[5]
*73 io_oeb[6]
*74 io_oeb[7]
*75 io_oeb[8]
*76 io_oeb[9]
*77 io_out[0]
*78 io_out[10]
*79 io_out[11]
*80 io_out[12]
*81 io_out[13]
*82 io_out[14]
*83 io_out[15]
*84 io_out[16]
*85 io_out[17]
*86 io_out[18]
*87 io_out[19]
*88 io_out[1]
*89 io_out[20]
*90 io_out[21]
*91 io_out[22]
*92 io_out[23]
*93 io_out[24]
*94 io_out[25]
*95 io_out[26]
*96 io_out[27]
*97 io_out[28]
*98 io_out[29]
*99 io_out[2]
*100 io_out[30]
*101 io_out[31]
*102 net273
*103 net274
*104 net275
*105 net276
*106 net277
*107 net278
*108 io_out[3]
*109 io_out[4]
*110 io_out[5]
*111 io_out[6]
*112 io_out[7]
*113 io_out[8]
*114 io_out[9]
*115 net279
*116 net280
*117 net281
*118 la_data_in[0]
*119 la_data_in[100]
*120 la_data_in[101]
*121 la_data_in[102]
*122 la_data_in[103]
*123 la_data_in[104]
*124 la_data_in[105]
*125 la_data_in[106]
*126 la_data_in[107]
*127 la_data_in[108]
*128 la_data_in[109]
*129 la_data_in[10]
*130 la_data_in[110]
*131 la_data_in[111]
*132 la_data_in[112]
*133 la_data_in[113]
*134 la_data_in[114]
*135 la_data_in[115]
*136 la_data_in[116]
*137 la_data_in[117]
*138 la_data_in[118]
*139 la_data_in[119]
*140 la_data_in[11]
*141 la_data_in[120]
*142 la_data_in[121]
*143 la_data_in[122]
*144 la_data_in[123]
*145 la_data_in[124]
*146 la_data_in[125]
*147 la_data_in[126]
*148 la_data_in[127]
*149 la_data_in[12]
*150 la_data_in[13]
*151 la_data_in[14]
*152 la_data_in[15]
*153 la_data_in[16]
*154 la_data_in[17]
*155 la_data_in[18]
*156 la_data_in[19]
*157 la_data_in[1]
*158 la_data_in[20]
*159 la_data_in[21]
*160 la_data_in[22]
*161 la_data_in[23]
*162 la_data_in[24]
*163 la_data_in[25]
*164 la_data_in[26]
*165 la_data_in[27]
*166 la_data_in[28]
*167 la_data_in[29]
*168 la_data_in[2]
*169 la_data_in[30]
*170 la_data_in[31]
*171 la_data_in[32]
*172 la_data_in[33]
*173 la_data_in[34]
*174 la_data_in[35]
*175 la_data_in[36]
*176 la_data_in[37]
*177 la_data_in[38]
*178 la_data_in[39]
*179 la_data_in[3]
*180 la_data_in[40]
*181 la_data_in[41]
*182 la_data_in[42]
*183 la_data_in[43]
*184 la_data_in[44]
*185 la_data_in[45]
*186 la_data_in[46]
*187 la_data_in[47]
*188 la_data_in[48]
*189 la_data_in[49]
*190 la_data_in[4]
*191 la_data_in[50]
*192 la_data_in[51]
*193 la_data_in[52]
*194 la_data_in[53]
*195 la_data_in[54]
*196 la_data_in[55]
*197 la_data_in[56]
*198 la_data_in[57]
*199 la_data_in[58]
*200 la_data_in[59]
*201 la_data_in[5]
*202 la_data_in[60]
*203 la_data_in[61]
*204 la_data_in[62]
*205 la_data_in[63]
*206 la_data_in[64]
*207 la_data_in[65]
*208 la_data_in[66]
*209 la_data_in[67]
*210 la_data_in[68]
*211 la_data_in[69]
*212 la_data_in[6]
*213 la_data_in[70]
*214 la_data_in[71]
*215 la_data_in[72]
*216 la_data_in[73]
*217 la_data_in[74]
*218 la_data_in[75]
*219 la_data_in[76]
*220 la_data_in[77]
*221 la_data_in[78]
*222 la_data_in[79]
*223 la_data_in[7]
*224 la_data_in[80]
*225 la_data_in[81]
*226 la_data_in[82]
*227 la_data_in[83]
*228 la_data_in[84]
*229 la_data_in[85]
*230 la_data_in[86]
*231 la_data_in[87]
*232 la_data_in[88]
*233 la_data_in[89]
*234 la_data_in[8]
*235 la_data_in[90]
*236 la_data_in[91]
*237 la_data_in[92]
*238 la_data_in[93]
*239 la_data_in[94]
*240 la_data_in[95]
*241 la_data_in[96]
*242 la_data_in[97]
*243 la_data_in[98]
*244 la_data_in[99]
*245 la_data_in[9]
*246 la_data_out[0]
*247 net350
*248 net351
*249 net352
*250 net353
*251 net354
*252 net355
*253 net356
*254 net357
*255 net358
*256 net359
*257 la_data_out[10]
*258 net360
*259 net361
*260 net362
*261 net363
*262 net364
*263 net365
*264 net366
*265 net367
*266 net368
*267 net369
*268 la_data_out[11]
*269 net370
*270 net371
*271 net372
*272 net373
*273 net374
*274 net375
*275 net376
*276 net377
*277 la_data_out[12]
*278 la_data_out[13]
*279 la_data_out[14]
*280 la_data_out[15]
*281 la_data_out[16]
*282 la_data_out[17]
*283 la_data_out[18]
*284 la_data_out[19]
*285 la_data_out[1]
*286 la_data_out[20]
*287 la_data_out[21]
*288 la_data_out[22]
*289 la_data_out[23]
*290 la_data_out[24]
*291 la_data_out[25]
*292 la_data_out[26]
*293 la_data_out[27]
*294 la_data_out[28]
*295 la_data_out[29]
*296 la_data_out[2]
*297 la_data_out[30]
*298 la_data_out[31]
*299 net282
*300 net283
*301 net284
*302 net285
*303 net286
*304 net287
*305 net288
*306 net289
*307 la_data_out[3]
*308 net290
*309 net291
*310 net292
*311 net293
*312 net294
*313 net295
*314 net296
*315 net297
*316 net298
*317 net299
*318 la_data_out[4]
*319 net300
*320 net301
*321 net302
*322 net303
*323 net304
*324 net305
*325 net306
*326 net307
*327 net308
*328 net309
*329 la_data_out[5]
*330 net310
*331 net311
*332 net312
*333 net313
*334 net314
*335 net315
*336 net316
*337 net317
*338 net318
*339 net319
*340 la_data_out[6]
*341 net320
*342 net321
*343 net322
*344 net323
*345 net324
*346 net325
*347 net326
*348 net327
*349 net328
*350 net329
*351 la_data_out[7]
*352 net330
*353 net331
*354 net332
*355 net333
*356 net334
*357 net335
*358 net336
*359 net337
*360 net338
*361 net339
*362 la_data_out[8]
*363 net340
*364 net341
*365 net342
*366 net343
*367 net344
*368 net345
*369 net346
*370 net347
*371 net348
*372 net349
*373 la_data_out[9]
*374 la_oenb[0]
*375 la_oenb[100]
*376 la_oenb[101]
*377 la_oenb[102]
*378 la_oenb[103]
*379 la_oenb[104]
*380 la_oenb[105]
*381 la_oenb[106]
*382 la_oenb[107]
*383 la_oenb[108]
*384 la_oenb[109]
*385 la_oenb[10]
*386 la_oenb[110]
*387 la_oenb[111]
*388 la_oenb[112]
*389 la_oenb[113]
*390 la_oenb[114]
*391 la_oenb[115]
*392 la_oenb[116]
*393 la_oenb[117]
*394 la_oenb[118]
*395 la_oenb[119]
*396 la_oenb[11]
*397 la_oenb[120]
*398 la_oenb[121]
*399 la_oenb[122]
*400 la_oenb[123]
*401 la_oenb[124]
*402 la_oenb[125]
*403 la_oenb[126]
*404 la_oenb[127]
*405 la_oenb[12]
*406 la_oenb[13]
*407 la_oenb[14]
*408 la_oenb[15]
*409 la_oenb[16]
*410 la_oenb[17]
*411 la_oenb[18]
*412 la_oenb[19]
*413 la_oenb[1]
*414 la_oenb[20]
*415 la_oenb[21]
*416 la_oenb[22]
*417 la_oenb[23]
*418 la_oenb[24]
*419 la_oenb[25]
*420 la_oenb[26]
*421 la_oenb[27]
*422 la_oenb[28]
*423 la_oenb[29]
*424 la_oenb[2]
*425 la_oenb[30]
*426 la_oenb[31]
*427 la_oenb[32]
*428 la_oenb[33]
*429 la_oenb[34]
*430 la_oenb[35]
*431 la_oenb[36]
*432 la_oenb[37]
*433 la_oenb[38]
*434 la_oenb[39]
*435 la_oenb[3]
*436 la_oenb[40]
*437 la_oenb[41]
*438 la_oenb[42]
*439 la_oenb[43]
*440 la_oenb[44]
*441 la_oenb[45]
*442 la_oenb[46]
*443 la_oenb[47]
*444 la_oenb[48]
*445 la_oenb[49]
*446 la_oenb[4]
*447 la_oenb[50]
*448 la_oenb[51]
*449 la_oenb[52]
*450 la_oenb[53]
*451 la_oenb[54]
*452 la_oenb[55]
*453 la_oenb[56]
*454 la_oenb[57]
*455 la_oenb[58]
*456 la_oenb[59]
*457 la_oenb[5]
*458 la_oenb[60]
*459 la_oenb[61]
*460 la_oenb[62]
*461 la_oenb[63]
*462 la_oenb[64]
*463 la_oenb[65]
*464 la_oenb[66]
*465 la_oenb[67]
*466 la_oenb[68]
*467 la_oenb[69]
*468 la_oenb[6]
*469 la_oenb[70]
*470 la_oenb[71]
*471 la_oenb[72]
*472 la_oenb[73]
*473 la_oenb[74]
*474 la_oenb[75]
*475 la_oenb[76]
*476 la_oenb[77]
*477 la_oenb[78]
*478 la_oenb[79]
*479 la_oenb[7]
*480 la_oenb[80]
*481 la_oenb[81]
*482 la_oenb[82]
*483 la_oenb[83]
*484 la_oenb[84]
*485 la_oenb[85]
*486 la_oenb[86]
*487 la_oenb[87]
*488 la_oenb[88]
*489 la_oenb[89]
*490 la_oenb[8]
*491 la_oenb[90]
*492 la_oenb[91]
*493 la_oenb[92]
*494 la_oenb[93]
*495 la_oenb[94]
*496 la_oenb[95]
*497 la_oenb[96]
*498 la_oenb[97]
*499 la_oenb[98]
*500 la_oenb[99]
*501 la_oenb[9]
*504 wb_clk_i
*505 wb_rst_i
*506 wbs_ack_o
*507 wbs_adr_i[0]
*508 wbs_adr_i[10]
*509 wbs_adr_i[11]
*510 wbs_adr_i[12]
*511 wbs_adr_i[13]
*512 wbs_adr_i[14]
*513 wbs_adr_i[15]
*514 wbs_adr_i[16]
*515 wbs_adr_i[17]
*516 wbs_adr_i[18]
*517 wbs_adr_i[19]
*518 wbs_adr_i[1]
*519 wbs_adr_i[20]
*520 wbs_adr_i[21]
*521 wbs_adr_i[22]
*522 wbs_adr_i[23]
*523 wbs_adr_i[24]
*524 wbs_adr_i[25]
*525 wbs_adr_i[26]
*526 wbs_adr_i[27]
*527 wbs_adr_i[28]
*528 wbs_adr_i[29]
*529 wbs_adr_i[2]
*530 wbs_adr_i[30]
*531 wbs_adr_i[31]
*532 wbs_adr_i[3]
*533 wbs_adr_i[4]
*534 wbs_adr_i[5]
*535 wbs_adr_i[6]
*536 wbs_adr_i[7]
*537 wbs_adr_i[8]
*538 wbs_adr_i[9]
*539 wbs_cyc_i
*540 wbs_dat_i[0]
*541 wbs_dat_i[10]
*542 wbs_dat_i[11]
*543 wbs_dat_i[12]
*544 wbs_dat_i[13]
*545 wbs_dat_i[14]
*546 wbs_dat_i[15]
*547 wbs_dat_i[16]
*548 wbs_dat_i[17]
*549 wbs_dat_i[18]
*550 wbs_dat_i[19]
*551 wbs_dat_i[1]
*552 wbs_dat_i[20]
*553 wbs_dat_i[21]
*554 wbs_dat_i[22]
*555 wbs_dat_i[23]
*556 wbs_dat_i[24]
*557 wbs_dat_i[25]
*558 wbs_dat_i[26]
*559 wbs_dat_i[27]
*560 wbs_dat_i[28]
*561 wbs_dat_i[29]
*562 wbs_dat_i[2]
*563 wbs_dat_i[30]
*564 wbs_dat_i[31]
*565 wbs_dat_i[3]
*566 wbs_dat_i[4]
*567 wbs_dat_i[5]
*568 wbs_dat_i[6]
*569 wbs_dat_i[7]
*570 wbs_dat_i[8]
*571 wbs_dat_i[9]
*572 wbs_dat_o[0]
*573 wbs_dat_o[10]
*574 wbs_dat_o[11]
*575 wbs_dat_o[12]
*576 wbs_dat_o[13]
*577 wbs_dat_o[14]
*578 wbs_dat_o[15]
*579 wbs_dat_o[16]
*580 wbs_dat_o[17]
*581 wbs_dat_o[18]
*582 wbs_dat_o[19]
*583 wbs_dat_o[1]
*584 wbs_dat_o[20]
*585 wbs_dat_o[21]
*586 wbs_dat_o[22]
*587 wbs_dat_o[23]
*588 wbs_dat_o[24]
*589 wbs_dat_o[25]
*590 wbs_dat_o[26]
*591 wbs_dat_o[27]
*592 wbs_dat_o[28]
*593 wbs_dat_o[29]
*594 wbs_dat_o[2]
*595 wbs_dat_o[30]
*596 wbs_dat_o[31]
*597 wbs_dat_o[3]
*598 wbs_dat_o[4]
*599 wbs_dat_o[5]
*600 wbs_dat_o[6]
*601 wbs_dat_o[7]
*602 wbs_dat_o[8]
*603 wbs_dat_o[9]
*604 wbs_sel_i[0]
*605 wbs_sel_i[1]
*606 wbs_sel_i[2]
*607 wbs_sel_i[3]
*608 wbs_stb_i
*609 wbs_we_i
*610 _0000_
*611 _0001_
*612 _0002_
*613 _0003_
*614 _0004_
*615 _0005_
*616 _0006_
*617 _0007_
*618 _0008_
*619 _0009_
*620 _0010_
*621 _0011_
*622 _0012_
*623 _0013_
*624 _0014_
*625 _0015_
*626 _0016_
*627 _0017_
*628 _0018_
*629 _0019_
*630 _0020_
*631 _0021_
*632 _0022_
*633 _0023_
*634 _0024_
*635 _0025_
*636 _0026_
*637 _0027_
*638 _0028_
*639 _0029_
*640 _0030_
*641 _0031_
*642 _0032_
*643 _0033_
*644 _0034_
*645 _0035_
*646 _0036_
*647 _0037_
*648 _0038_
*649 _0039_
*650 _0040_
*651 _0041_
*652 _0042_
*653 _0043_
*654 _0044_
*655 _0045_
*656 _0046_
*657 _0047_
*658 _0048_
*659 _0049_
*660 _0050_
*661 _0051_
*662 _0052_
*663 _0053_
*664 _0054_
*665 _0055_
*666 _0056_
*667 _0057_
*668 _0058_
*669 _0059_
*670 _0060_
*671 _0061_
*672 _0062_
*673 _0063_
*674 _0064_
*675 _0065_
*676 _0066_
*677 _0067_
*678 _0068_
*679 _0069_
*680 _0070_
*681 _0071_
*682 _0072_
*683 _0073_
*684 _0074_
*685 _0075_
*686 _0076_
*687 _0077_
*688 _0078_
*689 _0079_
*690 _0080_
*691 _0081_
*692 _0082_
*693 _0083_
*694 _0084_
*695 _0085_
*696 _0086_
*697 _0087_
*698 _0088_
*699 _0089_
*700 _0090_
*701 _0091_
*702 _0092_
*703 _0093_
*704 _0094_
*705 _0095_
*706 _0096_
*707 _0097_
*708 _0098_
*709 _0099_
*710 _0100_
*711 _0101_
*712 _0102_
*713 _0103_
*714 _0104_
*715 _0105_
*716 _0106_
*717 _0107_
*718 _0108_
*719 _0109_
*720 _0110_
*721 _0111_
*722 _0112_
*723 _0113_
*724 _0114_
*725 _0115_
*726 _0116_
*727 _0117_
*728 _0118_
*729 _0119_
*730 _0120_
*731 _0121_
*732 _0122_
*733 _0123_
*734 _0124_
*735 _0125_
*736 _0126_
*737 _0127_
*738 _0128_
*739 _0129_
*740 _0130_
*741 _0131_
*742 _0132_
*743 _0133_
*744 _0134_
*745 _0135_
*746 _0136_
*747 _0137_
*748 _0138_
*749 _0139_
*750 _0140_
*751 _0141_
*752 _0142_
*753 _0143_
*754 _0144_
*755 _0145_
*756 _0146_
*757 _0147_
*758 _0148_
*759 _0149_
*760 _0150_
*761 _0151_
*762 _0152_
*763 _0153_
*764 _0154_
*765 _0155_
*766 _0156_
*767 _0157_
*768 _0158_
*769 _0159_
*770 _0160_
*771 _0161_
*772 _0162_
*773 _0163_
*774 _0164_
*775 _0165_
*776 _0166_
*777 _0167_
*778 _0168_
*779 _0169_
*780 _0170_
*781 _0171_
*782 _0172_
*783 _0173_
*784 _0174_
*785 _0175_
*786 _0176_
*787 _0177_
*788 _0178_
*789 _0179_
*790 _0180_
*791 _0181_
*792 _0182_
*793 _0183_
*794 _0184_
*795 _0185_
*796 _0186_
*797 _0187_
*798 _0188_
*799 _0189_
*800 _0190_
*801 _0191_
*802 _0192_
*803 _0193_
*804 _0194_
*805 _0195_
*806 _0196_
*807 _0197_
*808 _0198_
*809 _0199_
*810 _0200_
*811 _0201_
*812 _0202_
*813 _0203_
*814 _0204_
*815 _0205_
*816 _0206_
*817 _0207_
*818 _0208_
*819 _0209_
*820 _0210_
*821 _0211_
*822 _0212_
*823 _0213_
*824 _0214_
*825 _0215_
*826 _0216_
*827 _0217_
*828 _0218_
*829 _0219_
*830 _0220_
*831 _0221_
*832 _0222_
*833 _0223_
*834 _0224_
*835 _0225_
*836 _0226_
*837 _0227_
*838 _0228_
*839 _0229_
*840 _0230_
*841 _0231_
*842 _0232_
*843 _0233_
*844 _0234_
*845 _0235_
*846 _0236_
*847 _0237_
*848 _0238_
*849 _0239_
*850 _0240_
*851 _0241_
*852 _0242_
*853 _0243_
*854 _0244_
*855 _0245_
*856 _0246_
*857 _0247_
*858 _0248_
*859 _0249_
*860 _0250_
*861 _0251_
*862 _0252_
*863 _0253_
*864 _0254_
*865 _0255_
*866 _0256_
*867 _0257_
*868 _0258_
*869 _0259_
*870 _0260_
*871 _0261_
*872 _0262_
*873 _0263_
*874 _0264_
*875 _0265_
*876 _0266_
*877 _0267_
*878 _0268_
*879 _0269_
*880 _0270_
*881 _0271_
*882 _0272_
*883 _0273_
*884 _0274_
*885 _0275_
*886 _0276_
*887 _0277_
*888 _0278_
*889 _0279_
*890 _0280_
*891 _0281_
*892 _0282_
*893 _0283_
*894 _0284_
*895 _0285_
*896 _0286_
*897 _0287_
*898 _0288_
*899 _0289_
*900 _0290_
*901 _0291_
*902 _0292_
*903 _0293_
*904 _0294_
*905 _0295_
*906 _0296_
*907 _0297_
*908 _0298_
*909 _0299_
*910 _0300_
*911 _0301_
*912 _0302_
*913 _0303_
*914 _0304_
*915 _0305_
*916 _0306_
*917 _0307_
*918 _0308_
*919 _0309_
*920 _0310_
*921 _0311_
*922 _0312_
*923 _0313_
*924 _0314_
*925 _0315_
*926 _0316_
*927 _0317_
*928 _0318_
*929 _0319_
*930 _0320_
*931 _0321_
*932 _0322_
*933 _0323_
*934 _0324_
*935 _0325_
*936 _0326_
*937 _0327_
*938 _0328_
*939 _0329_
*940 _0330_
*941 _0331_
*942 _0332_
*943 _0333_
*944 _0334_
*945 _0335_
*946 _0336_
*947 _0337_
*948 _0338_
*949 _0339_
*950 _0340_
*951 _0341_
*952 _0342_
*953 _0343_
*954 _0344_
*955 _0345_
*956 _0346_
*957 _0347_
*958 _0348_
*959 _0349_
*960 _0350_
*961 _0351_
*962 _0352_
*963 _0353_
*964 _0354_
*965 _0355_
*966 _0356_
*967 _0357_
*968 _0358_
*969 _0359_
*970 _0360_
*971 _0361_
*972 _0362_
*973 _0363_
*974 _0364_
*975 _0365_
*976 _0366_
*977 _0367_
*978 _0368_
*979 _0369_
*980 _0370_
*981 _0371_
*982 _0372_
*983 _0373_
*984 _0374_
*985 _0375_
*986 _0376_
*987 _0377_
*988 _0378_
*989 _0379_
*990 _0380_
*991 _0381_
*992 _0382_
*993 _0383_
*994 _0384_
*995 _0385_
*996 _0386_
*997 _0387_
*998 _0388_
*999 _0389_
*1000 _0390_
*1001 _0391_
*1002 _0392_
*1003 _0393_
*1004 _0394_
*1005 _0395_
*1006 _0396_
*1007 _0397_
*1008 _0398_
*1009 _0399_
*1010 _0400_
*1011 _0401_
*1012 _0402_
*1013 _0403_
*1014 _0404_
*1015 _0405_
*1016 _0406_
*1017 _0407_
*1018 _0408_
*1019 _0409_
*1020 _0410_
*1021 _0411_
*1022 _0412_
*1023 _0413_
*1024 _0414_
*1025 _0415_
*1026 _0416_
*1027 _0417_
*1028 _0418_
*1029 _0419_
*1030 _0420_
*1031 _0421_
*1032 _0422_
*1033 _0423_
*1034 _0424_
*1035 _0425_
*1036 _0426_
*1037 _0427_
*1038 _0428_
*1039 _0429_
*1040 _0430_
*1041 _0431_
*1042 _0432_
*1043 _0433_
*1044 _0434_
*1045 _0435_
*1046 _0436_
*1047 _0437_
*1048 _0438_
*1049 _0439_
*1050 _0440_
*1051 _0441_
*1052 _0442_
*1053 _0443_
*1054 _0444_
*1055 _0445_
*1056 _0446_
*1057 _0447_
*1058 _0448_
*1059 _0449_
*1060 _0450_
*1061 _0451_
*1062 _0452_
*1063 _0453_
*1064 _0454_
*1065 _0455_
*1066 _0456_
*1067 _0457_
*1068 _0458_
*1069 _0459_
*1070 _0460_
*1071 _0461_
*1072 _0462_
*1073 _0463_
*1074 _0464_
*1075 _0465_
*1076 _0466_
*1077 _0467_
*1078 _0468_
*1079 _0469_
*1080 _0470_
*1081 _0471_
*1082 _0472_
*1083 _0473_
*1084 _0474_
*1085 _0475_
*1086 _0476_
*1087 _0477_
*1088 _0478_
*1089 _0479_
*1090 _0480_
*1091 _0481_
*1092 _0482_
*1093 _0483_
*1094 _0484_
*1095 _0485_
*1096 _0486_
*1097 _0487_
*1098 _0488_
*1099 _0489_
*1100 _0490_
*1101 _0491_
*1102 _0492_
*1103 _0493_
*1104 _0494_
*1105 _0495_
*1106 _0496_
*1107 _0497_
*1108 _0498_
*1109 _0499_
*1110 _0500_
*1111 _0501_
*1112 _0502_
*1113 _0503_
*1114 _0504_
*1115 _0505_
*1116 _0506_
*1117 _0507_
*1118 _0508_
*1119 _0509_
*1120 _0510_
*1121 _0511_
*1122 _0512_
*1123 _0513_
*1124 _0514_
*1125 _0515_
*1126 _0516_
*1127 _0517_
*1128 _0518_
*1129 _0519_
*1130 _0520_
*1131 _0521_
*1132 _0522_
*1133 _0523_
*1134 _0524_
*1135 _0525_
*1136 _0526_
*1137 _0527_
*1138 _0528_
*1139 _0529_
*1140 _0530_
*1141 _0531_
*1142 _0532_
*1143 _0533_
*1144 _0534_
*1145 _0535_
*1146 _0536_
*1147 _0537_
*1148 _0538_
*1149 _0539_
*1150 _0540_
*1151 _0541_
*1152 _0542_
*1153 _0543_
*1154 _0544_
*1155 _0545_
*1156 _0546_
*1157 _0547_
*1158 _0548_
*1159 _0549_
*1160 _0550_
*1161 _0551_
*1162 _0552_
*1163 _0553_
*1164 _0554_
*1165 _0555_
*1166 _0556_
*1167 _0557_
*1168 _0558_
*1169 _0559_
*1170 _0560_
*1171 _0561_
*1172 _0562_
*1173 _0563_
*1174 _0564_
*1175 _0565_
*1176 _0566_
*1177 _0567_
*1178 _0568_
*1179 _0569_
*1180 _0570_
*1181 _0571_
*1182 _0572_
*1183 _0573_
*1184 _0574_
*1185 _0575_
*1186 _0576_
*1187 _0577_
*1188 _0578_
*1189 _0579_
*1190 _0580_
*1191 _0581_
*1192 _0582_
*1193 _0583_
*1194 _0584_
*1195 _0585_
*1196 _0586_
*1197 _0587_
*1198 _0588_
*1199 _0589_
*1200 _0590_
*1201 _0591_
*1202 _0592_
*1203 _0593_
*1204 _0594_
*1205 _0595_
*1206 _0596_
*1207 _0597_
*1208 _0598_
*1209 _0599_
*1210 _0600_
*1211 _0601_
*1212 _0602_
*1213 _0603_
*1214 _0604_
*1215 _0605_
*1216 _0606_
*1217 _0607_
*1218 _0608_
*1219 _0609_
*1220 _0610_
*1221 _0611_
*1222 _0612_
*1223 _0613_
*1224 _0614_
*1225 _0615_
*1226 _0616_
*1227 _0617_
*1228 _0618_
*1229 _0619_
*1230 _0620_
*1231 _0621_
*1232 _0622_
*1233 _0623_
*1234 _0624_
*1235 _0625_
*1236 _0626_
*1237 _0627_
*1238 _0628_
*1239 _0629_
*1240 _0630_
*1241 _0631_
*1242 _0632_
*1243 _0633_
*1244 _0634_
*1245 _0635_
*1246 _0636_
*1247 _0637_
*1248 _0638_
*1249 _0639_
*1250 _0640_
*1251 _0641_
*1252 _0642_
*1253 _0643_
*1254 _0644_
*1255 _0645_
*1256 _0646_
*1257 _0647_
*1258 _0648_
*1259 _0649_
*1260 _0650_
*1261 _0651_
*1262 _0652_
*1263 _0653_
*1264 _0654_
*1265 _0655_
*1266 _0656_
*1267 _0657_
*1268 _0658_
*1269 _0659_
*1270 _0660_
*1271 _0661_
*1272 _0662_
*1273 _0663_
*1274 _0664_
*1275 _0665_
*1276 _0666_
*1277 _0667_
*1278 _0668_
*1279 _0669_
*1280 _0670_
*1281 _0671_
*1282 _0672_
*1283 _0673_
*1284 _0674_
*1285 _0675_
*1286 _0676_
*1287 _0677_
*1288 _0678_
*1289 _0679_
*1290 _0680_
*1291 _0681_
*1292 _0682_
*1293 _0683_
*1294 _0684_
*1295 _0685_
*1296 _0686_
*1297 _0687_
*1298 _0688_
*1299 _0689_
*1300 _0690_
*1301 _0691_
*1302 _0692_
*1303 _0693_
*1304 _0694_
*1305 _0695_
*1306 _0696_
*1307 _0697_
*1308 _0698_
*1309 _0699_
*1310 _0700_
*1311 _0701_
*1312 _0702_
*1313 _0703_
*1314 _0704_
*1315 _0705_
*1316 _0706_
*1317 _0707_
*1318 _0708_
*1319 _0709_
*1320 _0710_
*1321 _0711_
*1322 _0712_
*1323 _0713_
*1324 _0714_
*1325 _0715_
*1326 _0716_
*1327 _0717_
*1328 _0718_
*1329 _0719_
*1330 _0720_
*1331 _0721_
*1332 _0722_
*1333 _0723_
*1334 _0724_
*1335 _0725_
*1336 _0726_
*1337 _0727_
*1338 _0728_
*1339 _0729_
*1340 _0730_
*1341 _0731_
*1342 _0732_
*1343 _0733_
*1344 _0734_
*1345 _0735_
*1346 _0736_
*1347 _0737_
*1348 _0738_
*1349 _0739_
*1350 _0740_
*1351 _0741_
*1352 _0742_
*1353 _0743_
*1354 _0744_
*1355 _0745_
*1356 _0746_
*1357 _0747_
*1358 _0748_
*1359 _0749_
*1360 _0750_
*1361 _0751_
*1362 _0752_
*1363 _0753_
*1364 _0754_
*1365 _0755_
*1366 _0756_
*1367 _0757_
*1368 _0758_
*1369 _0759_
*1370 _0760_
*1371 _0761_
*1372 _0762_
*1373 _0763_
*1374 _0764_
*1375 _0765_
*1376 _0766_
*1377 _0767_
*1378 _0768_
*1379 _0769_
*1380 _0770_
*1381 _0771_
*1382 _0772_
*1383 _0773_
*1384 _0774_
*1385 _0775_
*1386 _0776_
*1387 _0777_
*1388 _0778_
*1389 _0779_
*1390 _0780_
*1391 _0781_
*1392 _0782_
*1393 _0783_
*1394 _0784_
*1395 _0785_
*1396 _0786_
*1397 _0787_
*1398 _0788_
*1399 _0789_
*1400 _0790_
*1401 _0791_
*1402 _0792_
*1403 _0793_
*1404 _0794_
*1405 _0795_
*1406 _0796_
*1407 _0797_
*1408 _0798_
*1409 _0799_
*1410 _0800_
*1411 _0801_
*1412 _0802_
*1413 _0803_
*1414 _0804_
*1415 _0805_
*1416 _0806_
*1417 _0807_
*1418 _0808_
*1419 _0809_
*1420 _0810_
*1421 _0811_
*1422 _0812_
*1423 _0813_
*1424 _0814_
*1425 _0815_
*1426 _0816_
*1427 _0817_
*1428 _0818_
*1429 _0819_
*1430 _0820_
*1431 _0821_
*1432 _0822_
*1433 _0823_
*1434 _0824_
*1435 _0825_
*1436 _0826_
*1437 _0827_
*1438 _0828_
*1439 _0829_
*1440 _0830_
*1441 _0831_
*1442 _0832_
*1443 _0833_
*1444 _0834_
*1445 _0835_
*1446 _0836_
*1447 _0837_
*1448 _0838_
*1449 _0839_
*1450 _0840_
*1451 _0841_
*1452 _0842_
*1453 _0843_
*1454 _0844_
*1455 _0845_
*1456 _0846_
*1457 _0847_
*1458 _0848_
*1459 _0849_
*1460 _0850_
*1461 _0851_
*1462 _0852_
*1463 _0853_
*1464 _0854_
*1465 _0855_
*1466 _0856_
*1467 _0857_
*1468 _0858_
*1469 _0859_
*1470 _0860_
*1471 _0861_
*1472 _0862_
*1473 _0863_
*1474 _0864_
*1475 _0865_
*1476 _0866_
*1477 _0867_
*1478 _0868_
*1479 _0869_
*1480 _0870_
*1481 _0871_
*1482 _0872_
*1483 _0873_
*1484 _0874_
*1485 _0875_
*1486 _0876_
*1487 _0877_
*1488 _0878_
*1489 _0879_
*1490 _0880_
*1491 _0881_
*1492 _0882_
*1493 _0883_
*1494 _0884_
*1495 _0885_
*1496 _0886_
*1497 _0887_
*1498 _0888_
*1499 _0889_
*1500 _0890_
*1501 _0891_
*1502 _0892_
*1503 _0893_
*1504 _0894_
*1505 _0895_
*1506 _0896_
*1507 _0897_
*1508 _0898_
*1509 _0899_
*1510 _0900_
*1511 _0901_
*1512 _0902_
*1513 _0903_
*1514 _0904_
*1515 _0905_
*1516 _0906_
*1517 _0907_
*1518 _0908_
*1519 _0909_
*1520 _0910_
*1521 _0911_
*1522 _0912_
*1523 _0913_
*1524 _0914_
*1525 _0915_
*1526 _0916_
*1527 _0917_
*1528 _0918_
*1529 _0919_
*1530 _0920_
*1531 _0921_
*1532 _0922_
*1533 _0923_
*1534 _0924_
*1535 _0925_
*1536 _0926_
*1537 _0927_
*1538 _0928_
*1539 _0929_
*1540 _0930_
*1541 _0931_
*1542 _0932_
*1543 _0933_
*1544 _0934_
*1545 _0935_
*1546 _0936_
*1547 _0937_
*1548 _0938_
*1549 _0939_
*1550 _0940_
*1551 _0941_
*1552 _0942_
*1553 _0943_
*1554 _0944_
*1555 _0945_
*1556 _0946_
*1557 _0947_
*1558 _0948_
*1559 _0949_
*1560 _0950_
*1561 _0951_
*1562 _0952_
*1563 _0953_
*1564 _0954_
*1565 _0955_
*1566 _0956_
*1567 _0957_
*1568 _0958_
*1569 _0959_
*1570 _0960_
*1571 _0961_
*1572 _0962_
*1573 add_sub_accum\.clk
*1574 add_sub_accum\.wb_data_reg\[0\]
*1575 add_sub_accum\.wb_data_reg\[10\]
*1576 add_sub_accum\.wb_data_reg\[11\]
*1577 add_sub_accum\.wb_data_reg\[12\]
*1578 add_sub_accum\.wb_data_reg\[13\]
*1579 add_sub_accum\.wb_data_reg\[14\]
*1580 add_sub_accum\.wb_data_reg\[15\]
*1581 add_sub_accum\.wb_data_reg\[16\]
*1582 add_sub_accum\.wb_data_reg\[17\]
*1583 add_sub_accum\.wb_data_reg\[18\]
*1584 add_sub_accum\.wb_data_reg\[19\]
*1585 add_sub_accum\.wb_data_reg\[1\]
*1586 add_sub_accum\.wb_data_reg\[20\]
*1587 add_sub_accum\.wb_data_reg\[21\]
*1588 add_sub_accum\.wb_data_reg\[22\]
*1589 add_sub_accum\.wb_data_reg\[23\]
*1590 add_sub_accum\.wb_data_reg\[24\]
*1591 add_sub_accum\.wb_data_reg\[25\]
*1592 add_sub_accum\.wb_data_reg\[26\]
*1593 add_sub_accum\.wb_data_reg\[27\]
*1594 add_sub_accum\.wb_data_reg\[28\]
*1595 add_sub_accum\.wb_data_reg\[29\]
*1596 add_sub_accum\.wb_data_reg\[2\]
*1597 add_sub_accum\.wb_data_reg\[30\]
*1598 add_sub_accum\.wb_data_reg\[31\]
*1599 add_sub_accum\.wb_data_reg\[3\]
*1600 add_sub_accum\.wb_data_reg\[4\]
*1601 add_sub_accum\.wb_data_reg\[5\]
*1602 add_sub_accum\.wb_data_reg\[6\]
*1603 add_sub_accum\.wb_data_reg\[7\]
*1604 add_sub_accum\.wb_data_reg\[8\]
*1605 add_sub_accum\.wb_data_reg\[9\]
*1606 clknet_0_add_sub_accum\.clk
*1607 clknet_3_0__leaf_add_sub_accum\.clk
*1608 clknet_3_1__leaf_add_sub_accum\.clk
*1609 clknet_3_2__leaf_add_sub_accum\.clk
*1610 clknet_3_3__leaf_add_sub_accum\.clk
*1611 clknet_3_4__leaf_add_sub_accum\.clk
*1612 clknet_3_5__leaf_add_sub_accum\.clk
*1613 clknet_3_6__leaf_add_sub_accum\.clk
*1614 clknet_3_7__leaf_add_sub_accum\.clk
*1615 net1
*1616 net10
*1617 net100
*1618 net101
*1619 net102
*1620 net103
*1621 net104
*1622 net105
*1623 net106
*1624 net107
*1625 net108
*1626 net109
*1627 net11
*1628 net110
*1629 net111
*1630 net112
*1631 net113
*1632 net114
*1633 net115
*1634 net116
*1635 net117
*1636 net118
*1637 net119
*1638 net12
*1639 net120
*1640 net121
*1641 net122
*1642 net123
*1643 net124
*1644 net125
*1645 net126
*1646 net127
*1647 net128
*1648 net129
*1649 net13
*1650 net130
*1651 net131
*1652 net132
*1653 net133
*1654 net134
*1655 net135
*1656 net136
*1657 net137
*1658 net138
*1659 net139
*1660 net14
*1661 net140
*1662 net141
*1663 net142
*1664 net143
*1665 net144
*1666 net145
*1667 net146
*1668 net147
*1669 net148
*1670 net149
*1671 net15
*1672 net150
*1673 net151
*1674 net152
*1675 net153
*1676 net154
*1677 net155
*1678 net156
*1679 net157
*1680 net158
*1681 net159
*1682 net16
*1683 net160
*1684 net161
*1685 net162
*1686 net163
*1687 net164
*1688 net165
*1689 net166
*1690 net167
*1691 net168
*1692 net169
*1693 net17
*1694 net170
*1695 net171
*1696 net172
*1697 net173
*1698 net174
*1699 net175
*1700 net176
*1701 net177
*1702 net178
*1703 net179
*1704 net18
*1705 net180
*1706 net181
*1707 net182
*1708 net183
*1709 net184
*1710 net185
*1711 net186
*1712 net187
*1713 net188
*1714 net189
*1715 net19
*1716 net190
*1717 net191
*1718 net192
*1719 net193
*1720 net194
*1721 net195
*1722 net196
*1723 net197
*1724 net198
*1725 net199
*1726 net2
*1727 net20
*1728 net200
*1729 net201
*1730 net202
*1731 net203
*1732 net204
*1733 net205
*1734 net206
*1735 net207
*1736 net208
*1737 net209
*1738 net21
*1739 net210
*1740 net211
*1741 net212
*1742 net213
*1743 net214
*1744 net215
*1745 net216
*1746 net217
*1747 net218
*1748 net219
*1749 net22
*1750 net220
*1751 net221
*1752 net222
*1753 net223
*1754 net224
*1755 net225
*1756 net226
*1757 net227
*1758 net228
*1759 net229
*1760 net23
*1761 net230
*1762 net231
*1763 net232
*1764 net233
*1765 net234
*1766 net235
*1767 net236
*1768 net237
*1769 net238
*1770 net239
*1771 net24
*1772 net240
*1773 net241
*1774 net242
*1775 net243
*1776 net244
*1777 net245
*1778 net246
*1779 net247
*1780 net248
*1781 net249
*1782 net25
*1783 net250
*1784 net251
*1785 net252
*1786 net253
*1787 net254
*1788 net255
*1789 net256
*1790 net257
*1791 net258
*1792 net259
*1793 net26
*1794 net260
*1795 net261
*1796 net262
*1797 net263
*1798 net264
*1799 net265
*1800 net266
*1801 net267
*1802 net268
*1803 net269
*1804 net27
*1805 net270
*1806 net271
*1807 net28
*1808 net29
*1809 net3
*1810 net30
*1811 net31
*1812 net32
*1813 net33
*1814 net34
*1815 net35
*1816 net36
*1817 net37
*1818 net38
*1819 net39
*1820 net4
*1821 net40
*1822 net41
*1823 net42
*1824 net43
*1825 net44
*1826 net45
*1827 net46
*1828 net47
*1829 net48
*1830 net49
*1831 net5
*1832 net50
*1833 net51
*1834 net52
*1835 net53
*1836 net54
*1837 net55
*1838 net56
*1839 net57
*1840 net58
*1841 net59
*1842 net6
*1843 net60
*1844 net61
*1845 net62
*1846 net63
*1847 net64
*1848 net65
*1849 net66
*1850 net67
*1851 net68
*1852 net69
*1853 net7
*1854 net70
*1855 net71
*1856 net72
*1857 net73
*1858 net74
*1859 net75
*1860 net76
*1861 net77
*1862 net78
*1863 net79
*1864 net8
*1865 net80
*1866 net81
*1867 net82
*1868 net83
*1869 net84
*1870 net85
*1871 net86
*1872 net87
*1873 net88
*1874 net89
*1875 net9
*1876 net90
*1877 net91
*1878 net92
*1879 net93
*1880 net94
*1881 net95
*1882 net96
*1883 net97
*1884 net98
*1885 net99
*1886 ANTENNA__0963__A0
*1887 ANTENNA__0963__A1
*1888 ANTENNA__0963__S
*1889 ANTENNA__0966__A1
*1890 ANTENNA__0967__A
*1891 ANTENNA__0972__A
*1892 ANTENNA__0975__A
*1893 ANTENNA__0976__C
*1894 ANTENNA__0977__A
*1895 ANTENNA__0978__A
*1896 ANTENNA__0980__A
*1897 ANTENNA__0981__A
*1898 ANTENNA__0983__A
*1899 ANTENNA__0984__A
*1900 ANTENNA__1000__A
*1901 ANTENNA__1001__A
*1902 ANTENNA__1003__A
*1903 ANTENNA__1005__B1
*1904 ANTENNA__1015__B1
*1905 ANTENNA__1018__A1
*1906 ANTENNA__1020__A
*1907 ANTENNA__1021__A
*1908 ANTENNA__1024__B1
*1909 ANTENNA__1027__B1
*1910 ANTENNA__1030__B1
*1911 ANTENNA__1031__A
*1912 ANTENNA__1033__A1
*1913 ANTENNA__1033__B1
*1914 ANTENNA__1035__A1
*1915 ANTENNA__1035__B1
*1916 ANTENNA__1036__A
*1917 ANTENNA__1037__A
*1918 ANTENNA__1038__A
*1919 ANTENNA__1039__B
*1920 ANTENNA__1041__A1
*1921 ANTENNA__1043__B
*1922 ANTENNA__1044__A1
*1923 ANTENNA__1046__B
*1924 ANTENNA__1047__A1
*1925 ANTENNA__1049__A
*1926 ANTENNA__1050__A
*1927 ANTENNA__1050__B
*1928 ANTENNA__1051__A1
*1929 ANTENNA__1053__B
*1930 ANTENNA__1054__A1
*1931 ANTENNA__1056__A
*1932 ANTENNA__1057__A
*1933 ANTENNA__1058__A
*1934 ANTENNA__1059__A
*1935 ANTENNA__1061__A1
*1936 ANTENNA__1062__A
*1937 ANTENNA__1063__A
*1938 ANTENNA__1064__A1
*1939 ANTENNA__1066__A
*1940 ANTENNA__1067__A
*1941 ANTENNA__1068__A1
*1942 ANTENNA__1069__A
*1943 ANTENNA__1070__A
*1944 ANTENNA__1071__A1
*1945 ANTENNA__1074__A1
*1946 ANTENNA__1075__A
*1947 ANTENNA__1076__A
*1948 ANTENNA__1077__A
*1949 ANTENNA__1080__A1
*1950 ANTENNA__1082__A
*1951 ANTENNA__1084__A1
*1952 ANTENNA__1085__A
*1953 ANTENNA__1087__A1
*1954 ANTENNA__1089__A
*1955 ANTENNA__1091__A1
*1956 ANTENNA__1092__A
*1957 ANTENNA__1093__A
*1958 ANTENNA__1094__A1
*1959 ANTENNA__1096__B
*1960 ANTENNA__1097__A
*1961 ANTENNA__1098__A
*1962 ANTENNA__1099__A1
*1963 ANTENNA__1099__A2
*1964 ANTENNA__1099__C1
*1965 ANTENNA__1100__B
*1966 ANTENNA__1101__A1
*1967 ANTENNA__1101__A2
*1968 ANTENNA__1101__C1
*1969 ANTENNA__1102__A
*1970 ANTENNA__1103__A
*1971 ANTENNA__1104__A
*1972 ANTENNA__1115__B1
*1973 ANTENNA__1117__A
*1974 ANTENNA__1118__A
*1975 ANTENNA__1119__A2
*1976 ANTENNA__1120__A
*1977 ANTENNA__1122__A
*1978 ANTENNA__1123__B2
*1979 ANTENNA__1124__A
*1980 ANTENNA__1126__A
*1981 ANTENNA__1127__B2
*1982 ANTENNA__1128__A
*1983 ANTENNA__1130__A
*1984 ANTENNA__1132__A